* NGSPICE file created from UREx-LDO-v4_parax.ext - technology: sky130A

.subckt UREx-LDO-v4_parax VDD VOUT GND Vref
X0 VOUT.t70 XM7.S VDD.t143 VDD.t142 sky130_fd_pr__pfet_01v8_lvt ad=3.625 pd=25.29 as=3.625 ps=25.29 w=25 l=0.35
X1 VOUT.t69 XM7.S VDD.t137 VDD.t136 sky130_fd_pr__pfet_01v8_lvt ad=3.625 pd=25.29 as=3.625 ps=25.29 w=25 l=0.35
X2 XR2.R1 XM13.S XM14.D GND.t4 sky130_fd_pr__nfet_01v8_lvt ad=0.638 pd=4.98 as=0.638 ps=4.98 w=2.2 l=1
X3 XR1.R2 GND.t12 GND.t11 sky130_fd_pr__res_high_po_0p35 l=53.9
X4 VDD.t141 XM7.S VOUT.t68 VDD.t140 sky130_fd_pr__pfet_01v8_lvt ad=3.625 pd=25.29 as=3.625 ps=25.29 w=25 l=0.35
X5 VDD.t139 XM7.S VOUT.t67 VDD.t138 sky130_fd_pr__pfet_01v8_lvt ad=3.625 pd=25.29 as=3.625 ps=25.29 w=25 l=0.35
X6 XR1.R2 VOUT.t0 GND.t0 sky130_fd_pr__res_high_po_0p35 l=35.7
X7 VDD.t135 XM7.S VOUT.t66 VDD.t134 sky130_fd_pr__pfet_01v8_lvt ad=3.625 pd=25.29 as=3.625 ps=25.29 w=25 l=0.35
X8 VOUT.t65 XM7.S VDD.t133 VDD.t132 sky130_fd_pr__pfet_01v8_lvt ad=3.625 pd=25.29 as=3.625 ps=25.29 w=25 l=0.35
X9 VOUT.t64 XM7.S VDD.t109 VDD.t108 sky130_fd_pr__pfet_01v8_lvt ad=3.625 pd=25.29 as=3.625 ps=25.29 w=25 l=0.35
X10 VDD.t111 XM7.S VOUT.t63 VDD.t110 sky130_fd_pr__pfet_01v8_lvt ad=3.625 pd=25.29 as=3.625 ps=25.29 w=25 l=0.35
X11 VDD.t113 XM7.S VOUT.t62 VDD.t112 sky130_fd_pr__pfet_01v8_lvt ad=3.625 pd=25.29 as=3.625 ps=25.29 w=25 l=0.35
X12 VDD.t115 XM7.S VOUT.t61 VDD.t114 sky130_fd_pr__pfet_01v8_lvt ad=3.625 pd=25.29 as=3.625 ps=25.29 w=25 l=0.35
X13 VDD.t131 XM7.S VOUT.t60 VDD.t130 sky130_fd_pr__pfet_01v8_lvt ad=3.625 pd=25.29 as=3.625 ps=25.29 w=25 l=0.35
X14 VDD.t129 XM7.S VOUT.t59 VDD.t128 sky130_fd_pr__pfet_01v8_lvt ad=3.625 pd=25.29 as=3.625 ps=25.29 w=25 l=0.35
X15 VOUT.t58 XM7.S VDD.t127 VDD.t126 sky130_fd_pr__pfet_01v8_lvt ad=3.625 pd=25.29 as=3.625 ps=25.29 w=25 l=0.35
X16 VDD.t117 XM7.S VOUT.t57 VDD.t116 sky130_fd_pr__pfet_01v8_lvt ad=3.625 pd=25.29 as=3.625 ps=25.29 w=25 l=0.35
X17 VDD.t119 XM7.S VOUT.t56 VDD.t118 sky130_fd_pr__pfet_01v8_lvt ad=3.625 pd=25.29 as=3.625 ps=25.29 w=25 l=0.35
X18 VDD.t125 XM7.S VOUT.t55 VDD.t124 sky130_fd_pr__pfet_01v8_lvt ad=3.625 pd=25.29 as=3.625 ps=25.29 w=25 l=0.35
X19 VOUT.t54 XM7.S VDD.t123 VDD.t122 sky130_fd_pr__pfet_01v8_lvt ad=3.625 pd=25.29 as=7.25 ps=50.58 w=25 l=0.35
X20 VDD.t121 XM7.S VOUT.t53 VDD.t120 sky130_fd_pr__pfet_01v8_lvt ad=7.25 pd=50.58 as=3.625 ps=25.29 w=25 l=0.35
X21 VDD.t107 XM7.S VOUT.t52 VDD.t106 sky130_fd_pr__pfet_01v8_lvt ad=3.625 pd=25.29 as=3.625 ps=25.29 w=25 l=0.35
X22 VDD.t105 XM7.S VOUT.t51 VDD.t104 sky130_fd_pr__pfet_01v8_lvt ad=3.625 pd=25.29 as=3.625 ps=25.29 w=25 l=0.35
X23 VOUT.t50 XM7.S VDD.t99 VDD.t98 sky130_fd_pr__pfet_01v8_lvt ad=3.625 pd=25.29 as=3.625 ps=25.29 w=25 l=0.35
X24 VOUT.t49 XM7.S VDD.t101 VDD.t100 sky130_fd_pr__pfet_01v8_lvt ad=3.625 pd=25.29 as=3.625 ps=25.29 w=25 l=0.35
X25 VOUT.t48 XM7.S VDD.t103 VDD.t102 sky130_fd_pr__pfet_01v8_lvt ad=3.625 pd=25.29 as=3.625 ps=25.29 w=25 l=0.35
X26 VOUT.t47 XM7.S VDD.t97 VDD.t96 sky130_fd_pr__pfet_01v8_lvt ad=3.625 pd=25.29 as=7.25 ps=50.58 w=25 l=0.35
X27 GND.t10 XM7.G XM1.S GND.t9 sky130_fd_pr__nfet_01v8_lvt ad=0.348 pd=2.98 as=0.348 ps=2.98 w=1.2 l=1
X28 VDD.t95 XM7.S VOUT.t46 VDD.t94 sky130_fd_pr__pfet_01v8_lvt ad=3.625 pd=25.29 as=3.625 ps=25.29 w=25 l=0.35
X29 VOUT.t45 XM7.S VDD.t73 VDD.t72 sky130_fd_pr__pfet_01v8_lvt ad=3.625 pd=25.29 as=3.625 ps=25.29 w=25 l=0.35
X30 VOUT.t44 XM7.S VDD.t75 VDD.t74 sky130_fd_pr__pfet_01v8_lvt ad=3.625 pd=25.29 as=3.625 ps=25.29 w=25 l=0.35
X31 XM7.S XM7.G GND.t8 GND.t7 sky130_fd_pr__nfet_01v8_lvt ad=1.508 pd=10.98 as=1.508 ps=10.98 w=5.2 l=0.25
X32 VOUT.t43 XM7.S VDD.t77 VDD.t76 sky130_fd_pr__pfet_01v8_lvt ad=3.625 pd=25.29 as=3.625 ps=25.29 w=25 l=0.35
X33 VOUT.t42 XM7.S VDD.t79 VDD.t78 sky130_fd_pr__pfet_01v8_lvt ad=3.625 pd=25.29 as=3.625 ps=25.29 w=25 l=0.35
X34 VOUT.t41 XM7.S VDD.t93 VDD.t92 sky130_fd_pr__pfet_01v8_lvt ad=3.625 pd=25.29 as=3.625 ps=25.29 w=25 l=0.35
X35 VDD.t91 XM7.S VOUT.t40 VDD.t90 sky130_fd_pr__pfet_01v8_lvt ad=3.625 pd=25.29 as=3.625 ps=25.29 w=25 l=0.35
X36 VDD.t89 XM7.S VOUT.t39 VDD.t88 sky130_fd_pr__pfet_01v8_lvt ad=7.25 pd=50.58 as=3.625 ps=25.29 w=25 l=0.35
X37 VDD.t81 XM7.S VOUT.t38 VDD.t80 sky130_fd_pr__pfet_01v8_lvt ad=3.625 pd=25.29 as=3.625 ps=25.29 w=25 l=0.35
X38 VOUT.t37 XM7.S VDD.t83 VDD.t82 sky130_fd_pr__pfet_01v8_lvt ad=3.625 pd=25.29 as=3.625 ps=25.29 w=25 l=0.35
X39 VOUT.t36 XM7.S VDD.t87 VDD.t86 sky130_fd_pr__pfet_01v8_lvt ad=3.625 pd=25.29 as=3.625 ps=25.29 w=25 l=0.35
X40 VDD.t85 XM7.S VOUT.t35 VDD.t84 sky130_fd_pr__pfet_01v8_lvt ad=3.625 pd=25.29 as=3.625 ps=25.29 w=25 l=0.35
X41 VDD.t71 XM7.S VOUT.t34 VDD.t70 sky130_fd_pr__pfet_01v8_lvt ad=3.625 pd=25.29 as=3.625 ps=25.29 w=25 l=0.35
X42 VDD.t151 XM14.D XM14.D VDD.t150 sky130_fd_pr__pfet_01v8_lvt ad=0.29 pd=2.58 as=0.29 ps=2.58 w=1 l=1
X43 VDD.t69 XM7.S VOUT.t33 VDD.t68 sky130_fd_pr__pfet_01v8_lvt ad=3.625 pd=25.29 as=3.625 ps=25.29 w=25 l=0.35
X44 VDD.t67 XM7.S VOUT.t32 VDD.t66 sky130_fd_pr__pfet_01v8_lvt ad=3.625 pd=25.29 as=3.625 ps=25.29 w=25 l=0.35
X45 XM7.G XM14.D VDD.t149 VDD.t148 sky130_fd_pr__pfet_01v8_lvt ad=0.29 pd=2.58 as=0.29 ps=2.58 w=1 l=1
X46 VDD.t3 XM1.D XM1.D VDD.t2 sky130_fd_pr__pfet_01v8_lvt ad=0.145 pd=1.58 as=0.145 ps=1.58 w=0.5 l=1
X47 XM2.S.t1 XR1.R2 XM1.S GND.t1 sky130_fd_pr__nfet_01v8_lvt ad=0.232 pd=2.18 as=0.232 ps=2.18 w=0.8 l=1
X48 VOUT.t31 XM7.S VDD.t65 VDD.t64 sky130_fd_pr__pfet_01v8_lvt ad=3.625 pd=25.29 as=3.625 ps=25.29 w=25 l=0.35
X49 VDD.t63 XM7.S VOUT.t30 VDD.t62 sky130_fd_pr__pfet_01v8_lvt ad=3.625 pd=25.29 as=3.625 ps=25.29 w=25 l=0.35
X50 VDD.t61 XM7.S VOUT.t29 VDD.t60 sky130_fd_pr__pfet_01v8_lvt ad=7.25 pd=50.58 as=3.625 ps=25.29 w=25 l=0.35
X51 XM2.S.t0 XM1.D VDD.t1 VDD.t0 sky130_fd_pr__pfet_01v8_lvt ad=0.145 pd=1.58 as=0.145 ps=1.58 w=0.5 l=1
X52 VOUT.t28 XM7.S VDD.t59 VDD.t58 sky130_fd_pr__pfet_01v8_lvt ad=3.625 pd=25.29 as=7.25 ps=50.58 w=25 l=0.35
X53 VDD.t53 XM7.S VOUT.t27 VDD.t52 sky130_fd_pr__pfet_01v8_lvt ad=7.25 pd=50.58 as=3.625 ps=25.29 w=25 l=0.35
X54 VOUT.t26 XM7.S VDD.t57 VDD.t56 sky130_fd_pr__pfet_01v8_lvt ad=3.625 pd=25.29 as=3.625 ps=25.29 w=25 l=0.35
X55 VDD.t147 XM14.D XM13.S VDD.t146 sky130_fd_pr__pfet_01v8_lvt ad=0.29 pd=2.58 as=0.29 ps=2.58 w=1 l=1
X56 VOUT.t25 XM7.S VDD.t55 VDD.t54 sky130_fd_pr__pfet_01v8_lvt ad=3.625 pd=25.29 as=3.625 ps=25.29 w=25 l=0.35
X57 VOUT.t24 XM7.S VDD.t51 VDD.t50 sky130_fd_pr__pfet_01v8_lvt ad=3.625 pd=25.29 as=3.625 ps=25.29 w=25 l=0.35
X58 VOUT.t23 XM7.S VDD.t49 VDD.t48 sky130_fd_pr__pfet_01v8_lvt ad=3.625 pd=25.29 as=3.625 ps=25.29 w=25 l=0.35
X59 VOUT.t22 XM7.S VDD.t47 VDD.t46 sky130_fd_pr__pfet_01v8_lvt ad=3.625 pd=25.29 as=3.625 ps=25.29 w=25 l=0.35
X60 XM13.S XM13.S GND.t3 GND.t2 sky130_fd_pr__nfet_01v8_lvt ad=0.58 pd=4.58 as=0.58 ps=4.58 w=2 l=1
X61 VOUT.t21 XM7.S VDD.t45 VDD.t44 sky130_fd_pr__pfet_01v8_lvt ad=3.625 pd=25.29 as=3.625 ps=25.29 w=25 l=0.35
X62 VOUT.t20 XM7.S VDD.t43 VDD.t42 sky130_fd_pr__pfet_01v8_lvt ad=3.625 pd=25.29 as=3.625 ps=25.29 w=25 l=0.35
X63 VOUT.t19 XM7.S VDD.t41 VDD.t40 sky130_fd_pr__pfet_01v8_lvt ad=3.625 pd=25.29 as=3.625 ps=25.29 w=25 l=0.35
X64 VDD.t39 XM7.S VOUT.t18 VDD.t38 sky130_fd_pr__pfet_01v8_lvt ad=3.625 pd=25.29 as=3.625 ps=25.29 w=25 l=0.35
X65 VDD.t35 XM7.S VOUT.t17 VDD.t34 sky130_fd_pr__pfet_01v8_lvt ad=7.25 pd=50.58 as=3.625 ps=25.29 w=25 l=0.35
X66 VOUT.t16 XM7.S VDD.t37 VDD.t36 sky130_fd_pr__pfet_01v8_lvt ad=3.625 pd=25.29 as=7.25 ps=50.58 w=25 l=0.35
X67 VOUT.t15 XM7.S VDD.t33 VDD.t32 sky130_fd_pr__pfet_01v8_lvt ad=3.625 pd=25.29 as=3.625 ps=25.29 w=25 l=0.35
X68 XM7.S XM2.S.t2 VDD.t145 VDD.t144 sky130_fd_pr__pfet_01v8_lvt ad=1.218 pd=8.98 as=1.218 ps=8.98 w=4.2 l=0.35
X69 XM1.S Vref.t0 XM1.D GND.t15 sky130_fd_pr__nfet_01v8_lvt ad=0.232 pd=2.18 as=0.232 ps=2.18 w=0.8 l=1
X70 VDD.t31 XM7.S VOUT.t14 VDD.t30 sky130_fd_pr__pfet_01v8_lvt ad=3.625 pd=25.29 as=3.625 ps=25.29 w=25 l=0.35
X71 VDD.t7 XM7.S VOUT.t13 VDD.t6 sky130_fd_pr__pfet_01v8_lvt ad=3.625 pd=25.29 as=3.625 ps=25.29 w=25 l=0.35
X72 VDD.t29 XM7.S VOUT.t12 VDD.t28 sky130_fd_pr__pfet_01v8_lvt ad=3.625 pd=25.29 as=3.625 ps=25.29 w=25 l=0.35
X73 VDD.t11 XM7.S VOUT.t11 VDD.t10 sky130_fd_pr__pfet_01v8_lvt ad=3.625 pd=25.29 as=3.625 ps=25.29 w=25 l=0.35
X74 VDD.t19 XM7.S VOUT.t10 VDD.t18 sky130_fd_pr__pfet_01v8_lvt ad=3.625 pd=25.29 as=3.625 ps=25.29 w=25 l=0.35
X75 VOUT.t9 XM7.S VDD.t27 VDD.t26 sky130_fd_pr__pfet_01v8_lvt ad=3.625 pd=25.29 as=3.625 ps=25.29 w=25 l=0.35
X76 VDD.t25 XM7.S VOUT.t8 VDD.t24 sky130_fd_pr__pfet_01v8_lvt ad=3.625 pd=25.29 as=3.625 ps=25.29 w=25 l=0.35
X77 VDD.t23 XM7.S VOUT.t7 VDD.t22 sky130_fd_pr__pfet_01v8_lvt ad=3.625 pd=25.29 as=3.625 ps=25.29 w=25 l=0.35
X78 VDD.t21 XM7.S VOUT.t6 VDD.t20 sky130_fd_pr__pfet_01v8_lvt ad=3.625 pd=25.29 as=3.625 ps=25.29 w=25 l=0.35
X79 VOUT.t5 XM7.S VDD.t17 VDD.t16 sky130_fd_pr__pfet_01v8_lvt ad=3.625 pd=25.29 as=7.25 ps=50.58 w=25 l=0.35
X80 GND.t14 XR2.R1 GND.t13 sky130_fd_pr__res_high_po_0p35 l=3.1
X81 GND.t6 XM7.G XM7.G GND.t5 sky130_fd_pr__nfet_01v8_lvt ad=0.348 pd=2.98 as=0.348 ps=2.98 w=1.2 l=1
X82 VOUT.t4 XM7.S VDD.t15 VDD.t14 sky130_fd_pr__pfet_01v8_lvt ad=3.625 pd=25.29 as=3.625 ps=25.29 w=25 l=0.35
X83 VOUT.t3 XM7.S VDD.t13 VDD.t12 sky130_fd_pr__pfet_01v8_lvt ad=3.625 pd=25.29 as=3.625 ps=25.29 w=25 l=0.35
X84 VOUT.t2 XM7.S VDD.t9 VDD.t8 sky130_fd_pr__pfet_01v8_lvt ad=3.625 pd=25.29 as=3.625 ps=25.29 w=25 l=0.35
X85 VOUT.t1 XM7.S VDD.t5 VDD.t4 sky130_fd_pr__pfet_01v8_lvt ad=3.625 pd=25.29 as=3.625 ps=25.29 w=25 l=0.35
X86 XM2.S.t3 XM7.S sky130_fd_pr__cap_mim_m3_1 l=30 w=30
R0 VDD.n178 VDD.n177 14430.3
R1 VDD.n207 VDD.n2 12914.1
R2 VDD.n207 VDD.n3 12914.1
R3 VDD.n209 VDD.n3 12914.1
R4 VDD.n209 VDD.n2 12914.1
R5 VDD.n18 VDD.n5 12914.1
R6 VDD.n23 VDD.n5 12914.1
R7 VDD.n23 VDD.n6 12914.1
R8 VDD.n18 VDD.n6 12914.1
R9 VDD.n194 VDD.n107 12914.1
R10 VDD.n128 VDD.n107 12914.1
R11 VDD.n194 VDD.n108 12914.1
R12 VDD.n128 VDD.n108 12914.1
R13 VDD.n198 VDD.n102 12914.1
R14 VDD.n198 VDD.n103 12914.1
R15 VDD.n106 VDD.n102 12914.1
R16 VDD.n106 VDD.n103 12914.1
R17 VDD.n13 VDD.n11 12914.1
R18 VDD.n13 VDD.n9 12914.1
R19 VDD.n15 VDD.n11 12914.1
R20 VDD.n15 VDD.n9 12914.1
R21 VDD.n147 VDD.n139 2636.47
R22 VDD.n144 VDD.n140 2636.47
R23 VDD.n181 VDD.n121 1736.47
R24 VDD.n123 VDD.n121 1736.47
R25 VDD.n181 VDD.n180 1736.47
R26 VDD.n186 VDD.n116 1736.47
R27 VDD.n183 VDD.n116 1736.47
R28 VDD.n186 VDD.n117 1736.47
R29 VDD.n183 VDD.n117 1736.47
R30 VDD.n190 VDD.n111 1736.47
R31 VDD.n190 VDD.n112 1736.47
R32 VDD.n189 VDD.n111 1736.47
R33 VDD.n189 VDD.n112 1736.47
R34 VDD.n153 VDD.n151 1560
R35 VDD.n155 VDD.n150 1560
R36 VDD.n155 VDD.n151 1560
R37 VDD.n158 VDD.n133 1560
R38 VDD.n158 VDD.n135 1560
R39 VDD.n157 VDD.n133 1560
R40 VDD.n157 VDD.n135 1560
R41 VDD VDD.t1 642.13
R42 VDD VDD.t3 642.13
R43 VDD.t0 VDD.n152 429.089
R44 VDD.t2 VDD.n136 429.089
R45 VDD.t2 VDD.n137 429.089
R46 VDD.t148 VDD.n113 361.834
R47 VDD.t148 VDD.n114 361.834
R48 VDD.n185 VDD.t150 361.834
R49 VDD.t150 VDD.n184 361.834
R50 VDD.t146 VDD.n118 361.834
R51 VDD.n154 VDD.n150 357.824
R52 VDD.n137 VDD.n113 337.693
R53 VDD.n123 VDD.n122 314.781
R54 VDD.n17 VDD.n8 277.928
R55 VDD.n17 VDD.n16 277.928
R56 VDD.n26 VDD.n25 277.719
R57 VDD.n24 VDD.n0 277.719
R58 VDD.n200 VDD.n100 273.445
R59 VDD.n100 VDD.n1 273.445
R60 VDD.n193 VDD.n101 256.873
R61 VDD.n193 VDD.n192 256.873
R62 VDD VDD.t147 223.565
R63 VDD VDD.t151 223.565
R64 VDD VDD.t149 223.565
R65 VDD.n152 VDD.n136 187.175
R66 VDD.n184 VDD.n118 157.838
R67 VDD.n173 VDD.n99 153.439
R68 VDD.n145 VDD.n139 134.153
R69 VDD.n146 VDD.n140 134.153
R70 VDD.n185 VDD.n114 134.013
R71 VDD VDD.n10 97.6289
R72 VDD.n12 VDD.n10 72.8669
R73 VDD.n149 VDD.n130 62.0093
R74 VDD.n144 VDD.n143 61.6672
R75 VDD VDD.n147 61.6672
R76 VDD.n177 VDD.n126 57.3359
R77 VDD.n145 VDD.n144 57.1922
R78 VDD.n147 VDD.n146 57.1922
R79 VDD VDD.t145 55.5517
R80 VDD.n159 VDD.n132 53.0603
R81 VDD.n151 VDD.n131 46.2505
R82 VDD.n152 VDD.n151 46.2505
R83 VDD.n133 VDD.n131 46.2505
R84 VDD.n136 VDD.n133 46.2505
R85 VDD.n135 VDD.n134 46.2505
R86 VDD.n137 VDD.n135 46.2505
R87 VDD.n150 VDD.n149 46.2505
R88 VDD.n160 VDD.n159 38.6617
R89 VDD VDD.n138 38.0161
R90 VDD.n189 VDD 37.0005
R91 VDD.t148 VDD.n189 37.0005
R92 VDD.n117 VDD 37.0005
R93 VDD.t150 VDD.n117 37.0005
R94 VDD.n180 VDD 37.0005
R95 VDD VDD.n155 37.0005
R96 VDD.n155 VDD.t0 37.0005
R97 VDD.n157 VDD 37.0005
R98 VDD.t2 VDD.n157 37.0005
R99 VDD.n153 VDD.n130 37.0005
R100 VDD.n159 VDD.n158 37.0005
R101 VDD.n158 VDD.t2 37.0005
R102 VDD.n191 VDD.n190 37.0005
R103 VDD.n190 VDD.t148 37.0005
R104 VDD.n169 VDD.n116 37.0005
R105 VDD.t150 VDD.n116 37.0005
R106 VDD.n124 VDD.n121 37.0005
R107 VDD.t146 VDD.n121 37.0005
R108 VDD.n128 VDD.t58 33.5307
R109 VDD.t60 VDD.n11 33.5307
R110 VDD.n142 VDD.n1 33.4197
R111 VDD.n143 VDD.n142 31.4056
R112 VDD.n21 VDD.t88 31.0965
R113 VDD.n104 VDD.t16 31.0965
R114 VDD.t120 VDD.n105 31.0965
R115 VDD.t122 VDD.n196 31.0965
R116 VDD.n195 VDD.t52 31.0965
R117 VDD.t36 VDD.n7 31.0965
R118 VDD.t34 VDD.n19 31.0965
R119 VDD.n22 VDD.t96 31.0965
R120 VDD.n179 VDD.n123 30.8386
R121 VDD.n187 VDD.n112 30.8338
R122 VDD.n114 VDD.n112 30.8338
R123 VDD.n183 VDD.n182 30.8338
R124 VDD.n184 VDD.n183 30.8338
R125 VDD.n187 VDD.n186 30.8338
R126 VDD.n186 VDD.n185 30.8338
R127 VDD.n182 VDD.n181 30.8338
R128 VDD.n181 VDD.n118 30.8338
R129 VDD.n132 VDD.n111 30.8338
R130 VDD.n113 VDD.n111 30.8338
R131 VDD.n180 VDD.n122 29.6618
R132 VDD.n177 VDD.n176 28.9704
R133 VDD.n154 VDD.n153 27.8536
R134 VDD.n161 VDD.n130 27.8209
R135 VDD.n187 VDD.n110 25.7037
R136 VDD.n188 VDD.n187 25.7037
R137 VDD.n16 VDD 25.4556
R138 VDD.n16 VDD 25.4556
R139 VDD VDD.n0 25.4501
R140 VDD VDD.n1 25.384
R141 VDD VDD.n0 25.3599
R142 VDD.n143 VDD.n138 24.4658
R143 VDD.n182 VDD.n119 22.7662
R144 VDD.n182 VDD.n120 22.7662
R145 VDD.t88 VDD.t126 22.3617
R146 VDD.t126 VDD.t94 22.3617
R147 VDD.t94 VDD.t108 22.3617
R148 VDD.t108 VDD.t138 22.3617
R149 VDD.t138 VDD.t26 22.3617
R150 VDD.t26 VDD.t90 22.3617
R151 VDD.t84 VDD.t56 22.3617
R152 VDD.t98 VDD.t84 22.3617
R153 VDD.t140 VDD.t98 22.3617
R154 VDD.t4 VDD.t140 22.3617
R155 VDD.t128 VDD.t4 22.3617
R156 VDD.t16 VDD.t128 22.3617
R157 VDD.t142 VDD.t120 22.3617
R158 VDD.t130 VDD.t142 22.3617
R159 VDD.t12 VDD.t130 22.3617
R160 VDD.t24 VDD.t12 22.3617
R161 VDD.t102 VDD.t24 22.3617
R162 VDD.t134 VDD.t102 22.3617
R163 VDD.t78 VDD.t114 22.3617
R164 VDD.t114 VDD.t14 22.3617
R165 VDD.t14 VDD.t28 22.3617
R166 VDD.t28 VDD.t40 22.3617
R167 VDD.t40 VDD.t18 22.3617
R168 VDD.t18 VDD.t122 22.3617
R169 VDD.t42 VDD.t52 22.3617
R170 VDD.t66 VDD.t42 22.3617
R171 VDD.t82 VDD.t66 22.3617
R172 VDD.t6 VDD.t82 22.3617
R173 VDD.t54 VDD.t6 22.3617
R174 VDD.t30 VDD.t54 22.3617
R175 VDD.t68 VDD.t44 22.3617
R176 VDD.t100 VDD.t68 22.3617
R177 VDD.t118 VDD.t100 22.3617
R178 VDD.t76 VDD.t118 22.3617
R179 VDD.t38 VDD.t76 22.3617
R180 VDD.t58 VDD.t38 22.3617
R181 VDD.t86 VDD.t60 22.3617
R182 VDD.t104 VDD.t86 22.3617
R183 VDD.t136 VDD.t104 22.3617
R184 VDD.t124 VDD.t136 22.3617
R185 VDD.t132 VDD.t124 22.3617
R186 VDD.t20 VDD.t132 22.3617
R187 VDD.t32 VDD.t106 22.3617
R188 VDD.t106 VDD.t92 22.3617
R189 VDD.t92 VDD.t116 22.3617
R190 VDD.t116 VDD.t8 22.3617
R191 VDD.t8 VDD.t22 22.3617
R192 VDD.t22 VDD.t36 22.3617
R193 VDD.t46 VDD.t34 22.3617
R194 VDD.t70 VDD.t46 22.3617
R195 VDD.t48 VDD.t70 22.3617
R196 VDD.t62 VDD.t48 22.3617
R197 VDD.t74 VDD.t62 22.3617
R198 VDD.t112 VDD.t74 22.3617
R199 VDD.t10 VDD.t64 22.3617
R200 VDD.t50 VDD.t10 22.3617
R201 VDD.t80 VDD.t50 22.3617
R202 VDD.t72 VDD.t80 22.3617
R203 VDD.t110 VDD.t72 22.3617
R204 VDD.t96 VDD.t110 22.3617
R205 VDD.n160 VDD.n131 18.1948
R206 VDD.n156 VDD.n131 18.1948
R207 VDD VDD.n115 17.944
R208 VDD VDD.n115 17.8477
R209 VDD.n196 VDD.n195 17.1208
R210 VDD.n105 VDD.n104 15.7232
R211 VDD.n120 VDD 15.5284
R212 VDD VDD.n120 15.5284
R213 VDD.n156 VDD 15.4021
R214 VDD VDD.n156 15.4021
R215 VDD.n44 VDD.t61 15.3954
R216 VDD.n19 VDD.n7 15.3738
R217 VDD.n22 VDD.n21 15.3732
R218 VDD.n92 VDD.t121 15.3304
R219 VDD.n59 VDD.t89 15.3304
R220 VDD.n84 VDD.t53 15.2565
R221 VDD.n51 VDD.t35 15.2389
R222 VDD VDD.n188 15.1087
R223 VDD.n188 VDD 15.1087
R224 VDD.n199 VDD.n101 14.6389
R225 VDD.n126 VDD.n101 14.6389
R226 VDD.n200 VDD.n199 14.5837
R227 VDD.n12 VDD.n8 14.5384
R228 VDD.n8 VDD.n4 14.5384
R229 VDD.n26 VDD.n4 14.5384
R230 VDD.n27 VDD.n26 14.5265
R231 VDD.n140 VDD.n138 12.3338
R232 VDD.n141 VDD.n139 12.3338
R233 VDD VDD.n148 11.7598
R234 VDD.n208 VDD.t90 11.1811
R235 VDD.n208 VDD.t56 11.1811
R236 VDD.n197 VDD.t134 11.1811
R237 VDD.n197 VDD.t78 11.1811
R238 VDD.n127 VDD.t30 11.1811
R239 VDD.t44 VDD.n127 11.1811
R240 VDD.n14 VDD.t20 11.1811
R241 VDD.n14 VDD.t32 11.1811
R242 VDD.n20 VDD.t112 11.1811
R243 VDD.t64 VDD.n20 11.1811
R244 VDD.n134 VDD.n115 10.886
R245 VDD.n161 VDD.n160 10.8413
R246 VDD.n149 VDD.n148 10.3045
R247 VDD.n148 VDD 9.3271
R248 VDD.n129 VDD 9.30175
R249 VDD.n129 VDD 9.30175
R250 VDD.n205 VDD.n204 9.3005
R251 VDD VDD.t59 9.1568
R252 VDD VDD.t123 9.1568
R253 VDD VDD.t17 9.1568
R254 VDD VDD.t97 9.1568
R255 VDD VDD.t37 9.1568
R256 VDD.n201 VDD.n200 9.06832
R257 VDD.n176 VDD.n125 8.53855
R258 VDD.t0 VDD.n154 8.48781
R259 VDD VDD.n179 8.26283
R260 VDD VDD.n77 8.0142
R261 VDD VDD.n76 8.0142
R262 VDD VDD.n75 8.0142
R263 VDD VDD.n74 8.0142
R264 VDD VDD.n73 8.0142
R265 VDD VDD.n72 8.0142
R266 VDD VDD.n71 8.0142
R267 VDD VDD.n70 8.0142
R268 VDD VDD.n69 8.0142
R269 VDD VDD.n68 8.0142
R270 VDD VDD.n67 8.0142
R271 VDD VDD.n66 8.0142
R272 VDD VDD.n65 8.0142
R273 VDD VDD.n64 8.0142
R274 VDD VDD.n63 8.0142
R275 VDD VDD.n29 8.0142
R276 VDD VDD.n30 8.0142
R277 VDD VDD.n31 8.0142
R278 VDD VDD.n32 8.0142
R279 VDD VDD.n33 8.0142
R280 VDD VDD.n34 8.0142
R281 VDD VDD.n35 8.0142
R282 VDD VDD.n36 8.0142
R283 VDD VDD.n37 8.0142
R284 VDD VDD.n38 8.0142
R285 VDD VDD.n39 8.0142
R286 VDD VDD.n40 8.0142
R287 VDD VDD.n41 8.0142
R288 VDD VDD.n42 8.0142
R289 VDD VDD.n43 8.0142
R290 VDD.n179 VDD.n178 7.03326
R291 VDD VDD.n106 6.85235
R292 VDD.n197 VDD.n106 6.85235
R293 VDD VDD.n108 6.85235
R294 VDD.n127 VDD.n108 6.85235
R295 VDD VDD.n15 6.85235
R296 VDD.n15 VDD.n14 6.85235
R297 VDD VDD.n6 6.85235
R298 VDD.n20 VDD.n6 6.85235
R299 VDD.n13 VDD.n12 6.85235
R300 VDD.n14 VDD.n13 6.85235
R301 VDD.n5 VDD.n4 6.85235
R302 VDD.n20 VDD.n5 6.85235
R303 VDD VDD.n209 6.85235
R304 VDD.n209 VDD.n208 6.85235
R305 VDD.n207 VDD.n206 6.85235
R306 VDD.n208 VDD.n207 6.85235
R307 VDD.n199 VDD.n198 6.85235
R308 VDD.n198 VDD.n197 6.85235
R309 VDD.n126 VDD.n107 6.85235
R310 VDD.n127 VDD.n107 6.85235
R311 VDD.n122 VDD.t146 6.70818
R312 VDD.n50 VDD 6.20181
R313 VDD.n49 VDD 6.20181
R314 VDD.n48 VDD 6.20181
R315 VDD.n47 VDD 6.20181
R316 VDD.n46 VDD 6.20181
R317 VDD.n45 VDD 6.20181
R318 VDD.n44 VDD 6.20181
R319 VDD.n85 VDD 6.17415
R320 VDD.n86 VDD 6.17415
R321 VDD.n87 VDD 6.17415
R322 VDD.n88 VDD 6.17415
R323 VDD.n89 VDD 6.17415
R324 VDD.n90 VDD 6.17415
R325 VDD.n91 VDD 6.17415
R326 VDD.n94 VDD 6.17415
R327 VDD.n95 VDD 6.17415
R328 VDD.n96 VDD 6.17415
R329 VDD.n62 VDD 6.17415
R330 VDD.n61 VDD 6.17415
R331 VDD.n60 VDD 6.17415
R332 VDD.n93 VDD 6.17332
R333 VDD.n78 VDD 6.13751
R334 VDD.n78 VDD 6.10022
R335 VDD.n79 VDD 6.10022
R336 VDD.n80 VDD 6.10022
R337 VDD.n81 VDD 6.10022
R338 VDD.n82 VDD 6.10022
R339 VDD.n83 VDD 6.10022
R340 VDD.n58 VDD 6.08264
R341 VDD.n57 VDD 6.08264
R342 VDD.n56 VDD 6.08264
R343 VDD.n55 VDD 6.08264
R344 VDD.n54 VDD 6.08264
R345 VDD.n53 VDD 6.08264
R346 VDD.n52 VDD 6.08264
R347 VDD.n205 VDD.n28 5.0735
R348 VDD.n172 VDD 4.90577
R349 VDD.n166 VDD 4.69819
R350 VDD.n166 VDD 4.69701
R351 VDD.n11 VDD.n10 3.38095
R352 VDD.n146 VDD.t144 3.13878
R353 VDD.t144 VDD.n145 3.13878
R354 VDD.n134 VDD.n132 2.62614
R355 VDD.n192 VDD.n191 2.44351
R356 VDD.n193 VDD.n103 2.43471
R357 VDD.n196 VDD.n103 2.43471
R358 VDD.n177 VDD.n128 2.43471
R359 VDD.n194 VDD.n193 2.43471
R360 VDD.n195 VDD.n194 2.43471
R361 VDD.n17 VDD.n9 2.43471
R362 VDD.n9 VDD.n7 2.43471
R363 VDD.n18 VDD.n17 2.43471
R364 VDD.n19 VDD.n18 2.43471
R365 VDD.n24 VDD.n23 2.43471
R366 VDD.n23 VDD.n22 2.43471
R367 VDD.n25 VDD.n2 2.43471
R368 VDD.n21 VDD.n2 2.43471
R369 VDD.n100 VDD.n3 2.43471
R370 VDD.n104 VDD.n3 2.43471
R371 VDD.n102 VDD.n100 2.43471
R372 VDD.n105 VDD.n102 2.43471
R373 VDD.n162 VDD.n161 2.36093
R374 VDD.n125 VDD.n124 2.15448
R375 VDD.n202 VDD.n99 1.49216
R376 VDD.n171 VDD.n170 1.163
R377 VDD.n77 VDD.t77 1.1431
R378 VDD.n77 VDD.t39 1.1431
R379 VDD.n76 VDD.t101 1.1431
R380 VDD.n76 VDD.t119 1.1431
R381 VDD.n75 VDD.t45 1.1431
R382 VDD.n75 VDD.t69 1.1431
R383 VDD.n74 VDD.t55 1.1431
R384 VDD.n74 VDD.t31 1.1431
R385 VDD.n73 VDD.t83 1.1431
R386 VDD.n73 VDD.t7 1.1431
R387 VDD.n72 VDD.t43 1.1431
R388 VDD.n72 VDD.t67 1.1431
R389 VDD.n71 VDD.t41 1.1431
R390 VDD.n71 VDD.t19 1.1431
R391 VDD.n70 VDD.t15 1.1431
R392 VDD.n70 VDD.t29 1.1431
R393 VDD.n69 VDD.t79 1.1431
R394 VDD.n69 VDD.t115 1.1431
R395 VDD.n68 VDD.t103 1.1431
R396 VDD.n68 VDD.t135 1.1431
R397 VDD.n67 VDD.t13 1.1431
R398 VDD.n67 VDD.t25 1.1431
R399 VDD.n66 VDD.t143 1.1431
R400 VDD.n66 VDD.t131 1.1431
R401 VDD.n65 VDD.t5 1.1431
R402 VDD.n65 VDD.t129 1.1431
R403 VDD.n64 VDD.t99 1.1431
R404 VDD.n64 VDD.t141 1.1431
R405 VDD.n63 VDD.t57 1.1431
R406 VDD.n63 VDD.t85 1.1431
R407 VDD.n29 VDD.t27 1.1431
R408 VDD.n29 VDD.t91 1.1431
R409 VDD.n30 VDD.t109 1.1431
R410 VDD.n30 VDD.t139 1.1431
R411 VDD.n31 VDD.t127 1.1431
R412 VDD.n31 VDD.t95 1.1431
R413 VDD.n32 VDD.t73 1.1431
R414 VDD.n32 VDD.t111 1.1431
R415 VDD.n33 VDD.t51 1.1431
R416 VDD.n33 VDD.t81 1.1431
R417 VDD.n34 VDD.t65 1.1431
R418 VDD.n34 VDD.t11 1.1431
R419 VDD.n35 VDD.t75 1.1431
R420 VDD.n35 VDD.t113 1.1431
R421 VDD.n36 VDD.t49 1.1431
R422 VDD.n36 VDD.t63 1.1431
R423 VDD.n37 VDD.t47 1.1431
R424 VDD.n37 VDD.t71 1.1431
R425 VDD.n38 VDD.t9 1.1431
R426 VDD.n38 VDD.t23 1.1431
R427 VDD.n39 VDD.t93 1.1431
R428 VDD.n39 VDD.t117 1.1431
R429 VDD.n40 VDD.t33 1.1431
R430 VDD.n40 VDD.t107 1.1431
R431 VDD.n41 VDD.t133 1.1431
R432 VDD.n41 VDD.t21 1.1431
R433 VDD.n42 VDD.t137 1.1431
R434 VDD.n42 VDD.t125 1.1431
R435 VDD.n43 VDD.t87 1.1431
R436 VDD.n43 VDD.t105 1.1431
R437 VDD.n124 VDD.n119 1.01899
R438 VDD.n170 VDD.n169 1.01555
R439 VDD.n191 VDD.n110 0.991468
R440 VDD.n192 VDD.n109 0.908887
R441 VDD.n163 VDD 0.846475
R442 VDD.n169 VDD 0.781575
R443 VDD.n168 VDD.n167 0.7755
R444 VDD.n165 VDD.n109 0.7755
R445 VDD.n175 VDD.n174 0.640494
R446 VDD.n201 VDD.n28 0.415187
R447 VDD.n141 VDD 0.406522
R448 VDD.n166 VDD.n165 0.402286
R449 VDD.n164 VDD.n163 0.341588
R450 VDD.n161 VDD.n109 0.313618
R451 VDD.n163 VDD.n162 0.287074
R452 VDD.n25 VDD.n24 0.210336
R453 VDD VDD.n168 0.189747
R454 VDD.n171 VDD.n167 0.184492
R455 VDD.n174 VDD.n172 0.155474
R456 VDD.n164 VDD.n129 0.139431
R457 VDD.n174 VDD.n173 0.106251
R458 VDD.n178 VDD.n125 0.0899624
R459 VDD.n173 VDD 0.0742132
R460 VDD.n162 VDD 0.0624355
R461 VDD.n142 VDD.n141 0.0589946
R462 VDD.n204 VDD.n203 0.0545979
R463 VDD.n85 VDD.n84 0.0479942
R464 VDD.n59 VDD.n58 0.04712
R465 VDD.n93 VDD.n92 0.0468287
R466 VDD.n51 VDD.n50 0.0462459
R467 VDD.n206 VDD.n27 0.0419687
R468 VDD.n175 VDD.n99 0.0402727
R469 VDD.n45 VDD.n44 0.037796
R470 VDD.n46 VDD.n45 0.037796
R471 VDD.n47 VDD.n46 0.037796
R472 VDD.n48 VDD.n47 0.037796
R473 VDD.n49 VDD.n48 0.037796
R474 VDD.n50 VDD.n49 0.037796
R475 VDD.n52 VDD.n51 0.037796
R476 VDD.n53 VDD.n52 0.037796
R477 VDD.n54 VDD.n53 0.037796
R478 VDD.n55 VDD.n54 0.037796
R479 VDD.n56 VDD.n55 0.037796
R480 VDD.n57 VDD.n56 0.037796
R481 VDD.n58 VDD.n57 0.037796
R482 VDD.n60 VDD.n59 0.037796
R483 VDD.n61 VDD.n60 0.037796
R484 VDD.n62 VDD.n61 0.037796
R485 VDD.n96 VDD.n95 0.037796
R486 VDD.n95 VDD.n94 0.037796
R487 VDD.n94 VDD.n93 0.037796
R488 VDD.n92 VDD.n91 0.037796
R489 VDD.n91 VDD.n90 0.037796
R490 VDD.n90 VDD.n89 0.037796
R491 VDD.n89 VDD.n88 0.037796
R492 VDD.n88 VDD.n87 0.037796
R493 VDD.n87 VDD.n86 0.037796
R494 VDD.n86 VDD.n85 0.037796
R495 VDD.n84 VDD.n83 0.037796
R496 VDD.n83 VDD.n82 0.037796
R497 VDD.n82 VDD.n81 0.037796
R498 VDD.n81 VDD.n80 0.037796
R499 VDD.n80 VDD.n79 0.037796
R500 VDD.n79 VDD.n78 0.037796
R501 VDD.n172 VDD.n171 0.0314311
R502 VDD.n206 VDD.n205 0.0281458
R503 VDD.n168 VDD.n110 0.0211452
R504 VDD.n203 VDD.n28 0.0205
R505 VDD.n97 VDD.n96 0.0201856
R506 VDD.n97 VDD.n62 0.019103
R507 VDD.n98 VDD.n27 0.0166458
R508 VDD.n202 VDD.n201 0.0155974
R509 VDD.n176 VDD.n175 0.0121541
R510 VDD.n203 VDD.n202 0.00492217
R511 VDD.n170 VDD.n119 0.00394086
R512 VDD.n98 VDD.n97 0.00349826
R513 VDD.n165 VDD.n164 0.00305102
R514 VDD.n167 VDD.n166 0.00305102
R515 VDD.n204 VDD.n98 0.00123703
R516 VOUT.n0 VOUT.t0 40.8142
R517 VOUT.n0 VOUT 33.275
R518 VOUT VOUT.n1 8.0142
R519 VOUT VOUT.n2 8.0142
R520 VOUT VOUT.n3 8.0142
R521 VOUT VOUT.n4 8.0142
R522 VOUT VOUT.n5 8.0142
R523 VOUT VOUT.n6 8.0142
R524 VOUT VOUT.n7 8.0142
R525 VOUT VOUT.n8 8.0142
R526 VOUT VOUT.n9 8.0142
R527 VOUT VOUT.n10 8.0142
R528 VOUT VOUT.n11 8.0142
R529 VOUT VOUT.n12 8.0142
R530 VOUT VOUT.n13 8.0142
R531 VOUT VOUT.n14 8.0142
R532 VOUT VOUT.n15 8.0142
R533 VOUT VOUT.n16 8.0142
R534 VOUT VOUT.n17 8.0142
R535 VOUT VOUT.n18 8.0142
R536 VOUT VOUT.n19 8.0142
R537 VOUT VOUT.n20 8.0142
R538 VOUT VOUT.n21 8.0142
R539 VOUT VOUT.n22 8.0142
R540 VOUT VOUT.n23 8.0142
R541 VOUT VOUT.n24 8.0142
R542 VOUT VOUT.n58 8.0142
R543 VOUT VOUT.n57 8.0142
R544 VOUT VOUT.n56 8.0142
R545 VOUT VOUT.n55 8.0142
R546 VOUT VOUT.n54 8.0142
R547 VOUT VOUT.n53 8.0142
R548 VOUT VOUT.n52 8.0142
R549 VOUT VOUT.n51 8.0142
R550 VOUT VOUT.n50 8.0142
R551 VOUT VOUT.n49 8.0142
R552 VOUT VOUT.n48 8.0142
R553 VOUT.n25 VOUT 6.62696
R554 VOUT.n30 VOUT 6.60942
R555 VOUT.n29 VOUT 6.60942
R556 VOUT.n28 VOUT 6.60942
R557 VOUT.n27 VOUT 6.60942
R558 VOUT.n26 VOUT 6.60942
R559 VOUT.n25 VOUT 6.60942
R560 VOUT.n44 VOUT 6.50621
R561 VOUT.n43 VOUT 6.50621
R562 VOUT.n42 VOUT 6.50621
R563 VOUT.n41 VOUT 6.50621
R564 VOUT.n40 VOUT 6.50621
R565 VOUT.n39 VOUT 6.50621
R566 VOUT.n38 VOUT 6.50621
R567 VOUT.n37 VOUT 6.50621
R568 VOUT.n36 VOUT 6.50621
R569 VOUT.n35 VOUT 6.50621
R570 VOUT.n34 VOUT 6.50621
R571 VOUT.n33 VOUT 6.50621
R572 VOUT.n32 VOUT 6.50621
R573 VOUT.n31 VOUT 6.50621
R574 VOUT.n59 VOUT 6.4974
R575 VOUT.n59 VOUT 6.4974
R576 VOUT.n59 VOUT 6.4974
R577 VOUT.n59 VOUT 6.4974
R578 VOUT.n59 VOUT 6.4974
R579 VOUT.n59 VOUT 6.4974
R580 VOUT.n59 VOUT 6.4974
R581 VOUT.n47 VOUT 6.47805
R582 VOUT.n46 VOUT 6.47805
R583 VOUT.n45 VOUT 6.47805
R584 VOUT.n59 VOUT 6.47805
R585 VOUT.n59 VOUT 6.47805
R586 VOUT.n59 VOUT 6.47805
R587 VOUT.n59 VOUT 6.47805
R588 VOUT.n61 VOUT.n0 1.87819
R589 VOUT.n1 VOUT.t11 1.1431
R590 VOUT.n1 VOUT.t24 1.1431
R591 VOUT.n2 VOUT.t38 1.1431
R592 VOUT.n2 VOUT.t45 1.1431
R593 VOUT.n3 VOUT.t63 1.1431
R594 VOUT.n3 VOUT.t47 1.1431
R595 VOUT.n4 VOUT.t39 1.1431
R596 VOUT.n4 VOUT.t58 1.1431
R597 VOUT.n5 VOUT.t46 1.1431
R598 VOUT.n5 VOUT.t64 1.1431
R599 VOUT.n6 VOUT.t67 1.1431
R600 VOUT.n6 VOUT.t9 1.1431
R601 VOUT.n7 VOUT.t40 1.1431
R602 VOUT.n7 VOUT.t26 1.1431
R603 VOUT.n8 VOUT.t35 1.1431
R604 VOUT.n8 VOUT.t50 1.1431
R605 VOUT.n9 VOUT.t68 1.1431
R606 VOUT.n9 VOUT.t1 1.1431
R607 VOUT.n10 VOUT.t59 1.1431
R608 VOUT.n10 VOUT.t5 1.1431
R609 VOUT.n11 VOUT.t53 1.1431
R610 VOUT.n11 VOUT.t70 1.1431
R611 VOUT.n12 VOUT.t60 1.1431
R612 VOUT.n12 VOUT.t3 1.1431
R613 VOUT.n13 VOUT.t8 1.1431
R614 VOUT.n13 VOUT.t48 1.1431
R615 VOUT.n14 VOUT.t66 1.1431
R616 VOUT.n14 VOUT.t42 1.1431
R617 VOUT.n15 VOUT.t61 1.1431
R618 VOUT.n15 VOUT.t4 1.1431
R619 VOUT.n16 VOUT.t12 1.1431
R620 VOUT.n16 VOUT.t19 1.1431
R621 VOUT.n17 VOUT.t10 1.1431
R622 VOUT.n17 VOUT.t54 1.1431
R623 VOUT.n18 VOUT.t27 1.1431
R624 VOUT.n18 VOUT.t20 1.1431
R625 VOUT.n19 VOUT.t32 1.1431
R626 VOUT.n19 VOUT.t37 1.1431
R627 VOUT.n20 VOUT.t13 1.1431
R628 VOUT.n20 VOUT.t25 1.1431
R629 VOUT.n21 VOUT.t14 1.1431
R630 VOUT.n21 VOUT.t21 1.1431
R631 VOUT.n22 VOUT.t33 1.1431
R632 VOUT.n22 VOUT.t49 1.1431
R633 VOUT.n23 VOUT.t56 1.1431
R634 VOUT.n23 VOUT.t43 1.1431
R635 VOUT.n24 VOUT.t18 1.1431
R636 VOUT.n24 VOUT.t28 1.1431
R637 VOUT.n58 VOUT.t51 1.1431
R638 VOUT.n58 VOUT.t69 1.1431
R639 VOUT.n57 VOUT.t6 1.1431
R640 VOUT.n57 VOUT.t15 1.1431
R641 VOUT.n56 VOUT.t57 1.1431
R642 VOUT.n56 VOUT.t2 1.1431
R643 VOUT.n55 VOUT.t17 1.1431
R644 VOUT.n55 VOUT.t22 1.1431
R645 VOUT.n54 VOUT.t30 1.1431
R646 VOUT.n54 VOUT.t44 1.1431
R647 VOUT.n53 VOUT.t62 1.1431
R648 VOUT.n53 VOUT.t31 1.1431
R649 VOUT.n52 VOUT.t34 1.1431
R650 VOUT.n52 VOUT.t23 1.1431
R651 VOUT.n51 VOUT.t7 1.1431
R652 VOUT.n51 VOUT.t16 1.1431
R653 VOUT.n50 VOUT.t52 1.1431
R654 VOUT.n50 VOUT.t41 1.1431
R655 VOUT.n49 VOUT.t55 1.1431
R656 VOUT.n49 VOUT.t65 1.1431
R657 VOUT.n48 VOUT.t29 1.1431
R658 VOUT.n48 VOUT.t36 1.1431
R659 VOUT.n61 VOUT.n60 0.269042
R660 VOUT VOUT.n61 0.245093
R661 VOUT.n31 VOUT.n30 0.0403849
R662 VOUT.n38 VOUT.n37 0.0399737
R663 VOUT.n45 VOUT.n44 0.0398366
R664 VOUT.n60 VOUT.n59 0.0377063
R665 VOUT.n47 VOUT.n46 0.0180439
R666 VOUT.n46 VOUT.n45 0.0180439
R667 VOUT.n44 VOUT.n43 0.0180439
R668 VOUT.n43 VOUT.n42 0.0180439
R669 VOUT.n42 VOUT.n41 0.0180439
R670 VOUT.n41 VOUT.n40 0.0180439
R671 VOUT.n40 VOUT.n39 0.0180439
R672 VOUT.n39 VOUT.n38 0.0180439
R673 VOUT.n37 VOUT.n36 0.0180439
R674 VOUT.n36 VOUT.n35 0.0180439
R675 VOUT.n35 VOUT.n34 0.0180439
R676 VOUT.n34 VOUT.n33 0.0180439
R677 VOUT.n33 VOUT.n32 0.0180439
R678 VOUT.n32 VOUT.n31 0.0180439
R679 VOUT.n30 VOUT.n29 0.0180439
R680 VOUT.n29 VOUT.n28 0.0180439
R681 VOUT.n28 VOUT.n27 0.0180439
R682 VOUT.n27 VOUT.n26 0.0180439
R683 VOUT.n26 VOUT.n25 0.0180439
R684 VOUT.n60 VOUT.n47 0.0140005
R685 GND.n115 GND.n14 2.90498e+06
R686 GND.n114 GND.n113 1.30939e+06
R687 GND.n37 GND.n5 89970.1
R688 GND.n38 GND.n2 35054.4
R689 GND.n124 GND.n2 35054.4
R690 GND.n124 GND.n3 35054.4
R691 GND.n38 GND.n3 35054.4
R692 GND.n12 GND.n11 24509.1
R693 GND.n117 GND.n12 24509.1
R694 GND.n118 GND.n11 24509.1
R695 GND.n118 GND.n117 24509.1
R696 GND.n67 GND.n6 5620.29
R697 GND.n121 GND.n6 5620.29
R698 GND.n121 GND.n7 5620.29
R699 GND.n67 GND.n7 5620.29
R700 GND.n44 GND.n31 4797.53
R701 GND.n44 GND.n32 4797.53
R702 GND.n57 GND.n31 4797.53
R703 GND.n57 GND.n32 4797.53
R704 GND.n114 GND.n5 3962.46
R705 GND.n99 GND.n73 3493.85
R706 GND.n99 GND.n74 3493.85
R707 GND.n96 GND.n73 3493.85
R708 GND.n96 GND.n74 3493.85
R709 GND.n91 GND.n82 3377.97
R710 GND.n92 GND.n82 3377.97
R711 GND.n92 GND.n81 3377.97
R712 GND.n91 GND.n81 3377.97
R713 GND.n106 GND.n24 2914.44
R714 GND.n106 GND.n25 2914.44